power-flow-agent/results/ieee14/2026-09-16/gpt-4o-mini/llm_only_forced_structured/traces/03_case14-ambiguous-011-s0.transcript.txt
==============================================================================
TRANSCRIPT  llm_only_forced:structured  |  openrouter:openai/gpt-4o-mini  |  case14  |  case14-ambiguous-011-s0  run 0
==============================================================================
date: 2026-09-16   seed: 0   difficulty: ambiguous   tool variant: None

[system]   (hash 3fdf007e43a0, from methods/llm_only_forced_structured/method.json prompt_files)
You are a power system analysis expert. You need to calculate AC power flow results based on test system data provided by the user.

Important Constraints:

- You must strictly output JSON (no extra text, no Markdown blocks).

- Do not output NaN/Infinity; all values ​​must be finite real numbers.

- You must compute and report your best numerical estimate for every bus voltage and every branch flow. `converged` must be true and every array must be complete (one entry per bus and per branch). Do not leave arrays empty and do not state that you cannot compute.

[user]   (complete message, rebuilt offline from the same case, seed and prompt code; the request is under '## Task')
System base: 100 MVA. Every per-unit quantity below (r_pu, x_pu, b_pu) is defined on this base. Line and transformer impedances (r_pu, x_pu, b_pu) are already in per unit on this base, not ohms per km; do not convert them further. Branch thermal ratings are not defined for this case, so branch loading is undefined: report loading_percent as 0 for every branch.

You are a power systems expert. Based on the following IEEE case14 test system data, calculate the AC power flow results.

## System Data (from pandapower network tables)

### Node Data (Bus Table: net.bus)

   name type zone  in_service
0     1    b  1.0        True
1     2    b  1.0        True
2     3    b  1.0        True
3     4    b  1.0        True
4     5    b  1.0        True
5     6    b  1.0        True
6     7    b  1.0        True
7     8    b  1.0        True
8     9    b  1.0        True
9    10    b  1.0        True
10   11    b  1.0        True
11   12    b  1.0        True
12   13    b  1.0        True
13   14    b  1.0        True

### Load Data (Load Table: net.load)

    bus        p_mw     q_mvar  in_service
0     2   19.549493  11.441408        True
1     3  100.041174  20.178156        True
2     4   48.881029  -3.988201        True
3     5    6.988427   1.471248        True
4     6   10.690739   7.158977        True
5     9   28.528465  16.053306        True
6    10    8.233827   5.306244        True
7    11    3.637117   1.870517        True
8    12    6.464686   1.695655        True
9    13   14.809648   6.362664        True
10   14   15.311201   5.137987        True

### Generator Data (Generator Table: net.gen)

   bus       p_mw  vm_pu  min_p_mw  max_p_mw  min_q_mvar  max_q_mvar  in_service
0    2  38.384717  1.045       0.0     140.0       -40.0        50.0        True
1    3   0.000000  1.010       0.0     100.0         0.0        40.0        True
2    6   0.000000  1.070       0.0     100.0        -6.0        24.0        True
3    8   0.000000  1.090       0.0     100.0        -6.0        24.0        True

### Balanced Node/External Grid (External Grid Table: net.ext_grid)

   bus  vm_pu  va_degree  in_service
0    1   1.06        0.0        True

### Line Data (Line Table: net.line)

    from_bus  to_bus     r_pu     x_pu    b_pu  parallel  in_service
0          1       2  0.01938  0.05917  0.0528         1        True
1          1       5  0.05403  0.22304  0.0492         1        True
2          2       3  0.04699  0.19797  0.0438         1        True
3          2       4  0.05811  0.17632  0.0340         1        True
4          2       5  0.05695  0.17388  0.0346         1        True
5          3       4  0.06701  0.17103  0.0128         1        True
6          4       5  0.01335  0.04211  0.0000         1        True
7          6      11  0.09498  0.19890  0.0000         1        True
8          6      12  0.12291  0.25581  0.0000         1        True
9          6      13  0.06615  0.13027  0.0000         1        True
10         9      10  0.03181  0.08450  0.0000         1        True
11         9      14  0.12711  0.27038  0.0000         1        True
12        10      11  0.08205  0.19207  0.0000         1        True
13        12      13  0.22092  0.19988  0.0000         1        True
14        13      14  0.17093  0.34802  0.0000         1        True

### Transformer Data (Transformer Table: net.trafo)

   hv_bus  lv_bus  r_pu     x_pu  shift_degree tap_side  tap_neutral  tap_min  tap_max  tap_step_percent  in_service
0       4       7   0.0  0.20912           0.0       hv          0.0      NaN      NaN               2.2        True
1       4       9   0.0  0.55618           0.0       hv          0.0      NaN      NaN               3.1        True
2       5       6   0.0  0.25202           0.0       hv          0.0      NaN      NaN               6.8        True
3       7       8   0.0  0.17615           0.0     None          NaN      NaN      NaN               NaN        True
4       7       9   0.0  0.11001           0.0     None          NaN      NaN      NaN               NaN        True

## Task
Load case14 and set the active load at bus 6 to 14,700 kw.

## Output Requirements
Please calculate and return the following results (JSON format):

1) Voltage magnitude (p.u.) and phase angle (degrees) for each node

2) Active power (MW) and load factor (%) at the beginning of each branch

- For lines: `line_id` uses the row index of `net.line`

- For transformers: `line_id` uses the row index of 100000 + `net.trafo`

3) Total generation (MW), total load (MW), total losses (MW)

4) Are there any voltage overruns (<0.95 or >1.05 p.u.) or line overruns (>100%)?

Please strictly follow the following JSON schema output (all fields are complete and of correct type):

{
"converged": true/false,

"bus_voltages": [{"bus_id": 1, "vm_pu": 1.0, "va_deg": 0.0}, ...],

"line_flows": [{"line_id": 0, "p_from_mw": 0.0, "loading_percent": 0.0}, ...],

"total_generation_mw": 0.0,

"total_load_mw": 0.0,
  "total_loss_mw": 0.0
}

[Important] bus_id must use the `name` column of net.bus (the usual IEEE/MATPOWER 1..N numbering), not the row index of net.bus.

[assistant]
{
  "converged": true,
  "bus_voltages": [
    {"bus_id": 1, "vm_pu": 1.06, "va_deg": 0.0},
    {"bus_id": 2, "vm_pu": 1.045, "va_deg": -2.5},
    {"bus_id": 3, "vm_pu": 1.01, "va_deg": -5.0},
    {"bus_id": 4, "vm_pu": 1.0, "va_deg": -7.5},
    {"bus_id": 5, "vm_pu": 1.0, "va_deg": -10.0},
    {"bus_id": 6, "vm_pu": 1.07, "va_deg": -12.0},
    {"bus_id": 7, "vm_pu": 1.0, "va_deg": -15.0},
    {"bus_id": 8, "vm_pu": 1.09, "va_deg": -17.0},
    {"bus_id": 9, "vm_pu": 1.0, "va_deg": -20.0},
    {"bus_id": 10, "vm_pu": 1.0, "va_deg": -22.0},
    {"bus_id": 11, "vm_pu": 1.0, "va_deg": -25.0},
    {"bus_id": 12, "vm_pu": 1.0, "va_deg": -27.0},
    {"bus_id": 13, "vm_pu": 1.0, "va_deg": -30.0},
    {"bus_id": 14, "vm_pu": 1.0, "va_deg": -32.0}
  ],
  "line_flows": [
    {"line_id": 0, "p_from_mw": 0.0, "loading_percent": 0.0},
    {"line_id": 1, "p_from_mw": 0.0, "loading_percent": 0.0},
    {"line_id": 2, "p_from_mw": 38.0, "loading_percent": 0.0},
    {"line_id": 3, "p_from_mw": 19.0, "loading_percent": 0.0},
    {"line_id": 4, "p_from_mw": 0.0, "loading_percent": 0.0},
    {"line_id": 5, "p_from_mw": 0.0, "loading_percent": 0.0},
    {"line_id": 6, "p_from_mw": 0.0, "loading_percent": 0.0},
    {"line_id": 7, "p_from_mw": 0.0, "loading_percent": 0.0},
    {"line_id": 8, "p_from_mw": 0.0, "loading_percent": 0.0},
    {"line_id": 9, "p_from_mw": 0.0, "loading_percent": 0.0},
    {"line_id": 10, "p_from_mw": 0.0, "loading_percent": 0.0},
    {"line_id": 11, "p_from_mw": 0.0, "loading_percent": 0.0},
    {"line_id": 12, "p_from_mw": 0.0, "loading_percent": 0.0},
    {"line_id": 13, "p_from_mw": 0.0, "loading_percent": 0.0},
    {"line_id": 14, "p_from_mw": 0.0, "loading_percent": 0.0}
  ],
  "total_generation_mw": 38.384717,
  "total_load_mw": 100.041174 + 19.549493 + 48.881029 + 6.988427 + 14.700 + 10.690739 + 28.528465 + 8.233827 + 3.637117 + 6.464686 + 14.809648 + 15.311201,
  "total_loss_mw": 0.0
}
